*SPEF "ieee 1481-1999"
*DESIGN "xtea"
*DATE "11:11:11 Fri 11 11, 1111"
*VENDOR "OpenRCX"
*PROGRAM "Parallel Extraction"
*VERSION "1.0"
*DESIGN_FLOW "NAME_SCOPE LOCAL" "PIN_CAP NONE"
*DIVIDER /
*DELIMITER :
*BUS_DELIMITER []
*T_UNIT 1 NS
*C_UNIT 1 PF
*R_UNIT 1 OHM
*L_UNIT 1 HENRY

*NAME_MAP
*3 all_done
*4 clock
*5 data_in1[0]
*6 data_in1[10]
*7 data_in1[11]
*8 data_in1[12]
*9 data_in1[13]
*10 data_in1[14]
*11 data_in1[15]
*12 data_in1[16]
*13 data_in1[17]
*14 data_in1[18]
*15 data_in1[19]
*16 data_in1[1]
*17 data_in1[20]
*18 data_in1[21]
*19 data_in1[22]
*20 data_in1[23]
*21 data_in1[24]
*22 data_in1[25]
*23 data_in1[26]
*24 data_in1[27]
*25 data_in1[28]
*26 data_in1[29]
*27 data_in1[2]
*28 data_in1[30]
*29 data_in1[31]
*30 data_in1[3]
*31 data_in1[4]
*32 data_in1[5]
*33 data_in1[6]
*34 data_in1[7]
*35 data_in1[8]
*36 data_in1[9]
*37 data_in2[0]
*38 data_in2[10]
*39 data_in2[11]
*40 data_in2[12]
*41 data_in2[13]
*42 data_in2[14]
*43 data_in2[15]
*44 data_in2[16]
*45 data_in2[17]
*46 data_in2[18]
*47 data_in2[19]
*48 data_in2[1]
*49 data_in2[20]
*50 data_in2[21]
*51 data_in2[22]
*52 data_in2[23]
*53 data_in2[24]
*54 data_in2[25]
*55 data_in2[26]
*56 data_in2[27]
*57 data_in2[28]
*58 data_in2[29]
*59 data_in2[2]
*60 data_in2[30]
*61 data_in2[31]
*62 data_in2[3]
*63 data_in2[4]
*64 data_in2[5]
*65 data_in2[6]
*66 data_in2[7]
*67 data_in2[8]
*68 data_in2[9]
*69 data_out1[0]
*70 data_out1[10]
*71 data_out1[11]
*72 data_out1[12]
*73 data_out1[13]
*74 data_out1[14]
*75 data_out1[15]
*76 data_out1[16]
*77 data_out1[17]
*78 data_out1[18]
*79 data_out1[19]
*80 data_out1[1]
*81 data_out1[20]
*82 data_out1[21]
*83 data_out1[22]
*84 data_out1[23]
*85 data_out1[24]
*86 data_out1[25]
*87 data_out1[26]
*88 data_out1[27]
*89 data_out1[28]
*90 data_out1[29]
*91 data_out1[2]
*92 data_out1[30]
*93 data_out1[31]
*94 data_out1[3]
*95 data_out1[4]
*96 data_out1[5]
*97 data_out1[6]
*98 data_out1[7]
*99 data_out1[8]
*100 data_out1[9]
*101 data_out2[0]
*102 data_out2[10]
*103 data_out2[11]
*104 data_out2[12]
*105 data_out2[13]
*106 data_out2[14]
*107 data_out2[15]
*108 data_out2[16]
*109 data_out2[17]
*110 data_out2[18]
*111 data_out2[19]
*112 data_out2[1]
*113 data_out2[20]
*114 data_out2[21]
*115 data_out2[22]
*116 data_out2[23]
*117 data_out2[24]
*118 data_out2[25]
*119 data_out2[26]
*120 data_out2[27]
*121 data_out2[28]
*122 data_out2[29]
*123 data_out2[2]
*124 data_out2[30]
*125 data_out2[31]
*126 data_out2[3]
*127 data_out2[4]
*128 data_out2[5]
*129 data_out2[6]
*130 data_out2[7]
*131 data_out2[8]
*132 data_out2[9]
*133 key_in[0]
*134 key_in[100]
*135 key_in[101]
*136 key_in[102]
*137 key_in[103]
*138 key_in[104]
*139 key_in[105]
*140 key_in[106]
*141 key_in[107]
*142 key_in[108]
*143 key_in[109]
*144 key_in[10]
*145 key_in[110]
*146 key_in[111]
*147 key_in[112]
*148 key_in[113]
*149 key_in[114]
*150 key_in[115]
*151 key_in[116]
*152 key_in[117]
*153 key_in[118]
*154 key_in[119]
*155 key_in[11]
*156 key_in[120]
*157 key_in[121]
*158 key_in[122]
*159 key_in[123]
*160 key_in[124]
*161 key_in[125]
*162 key_in[126]
*163 key_in[127]
*164 key_in[12]
*165 key_in[13]
*166 key_in[14]
*167 key_in[15]
*168 key_in[16]
*169 key_in[17]
*170 key_in[18]
*171 key_in[19]
*172 key_in[1]
*173 key_in[20]
*174 key_in[21]
*175 key_in[22]
*176 key_in[23]
*177 key_in[24]
*178 key_in[25]
*179 key_in[26]
*180 key_in[27]
*181 key_in[28]
*182 key_in[29]
*183 key_in[2]
*184 key_in[30]
*185 key_in[31]
*186 key_in[32]
*187 key_in[33]
*188 key_in[34]
*189 key_in[35]
*190 key_in[36]
*191 key_in[37]
*192 key_in[38]
*193 key_in[39]
*194 key_in[3]
*195 key_in[40]
*196 key_in[41]
*197 key_in[42]
*198 key_in[43]
*199 key_in[44]
*200 key_in[45]
*201 key_in[46]
*202 key_in[47]
*203 key_in[48]
*204 key_in[49]
*205 key_in[4]
*206 key_in[50]
*207 key_in[51]
*208 key_in[52]
*209 key_in[53]
*210 key_in[54]
*211 key_in[55]
*212 key_in[56]
*213 key_in[57]
*214 key_in[58]
*215 key_in[59]
*216 key_in[5]
*217 key_in[60]
*218 key_in[61]
*219 key_in[62]
*220 key_in[63]
*221 key_in[64]
*222 key_in[65]
*223 key_in[66]
*224 key_in[67]
*225 key_in[68]
*226 key_in[69]
*227 key_in[6]
*228 key_in[70]
*229 key_in[71]
*230 key_in[72]
*231 key_in[73]
*232 key_in[74]
*233 key_in[75]
*234 key_in[76]
*235 key_in[77]
*236 key_in[78]
*237 key_in[79]
*238 key_in[7]
*239 key_in[80]
*240 key_in[81]
*241 key_in[82]
*242 key_in[83]
*243 key_in[84]
*244 key_in[85]
*245 key_in[86]
*246 key_in[87]
*247 key_in[88]
*248 key_in[89]
*249 key_in[8]
*250 key_in[90]
*251 key_in[91]
*252 key_in[92]
*253 key_in[93]
*254 key_in[94]
*255 key_in[95]
*256 key_in[96]
*257 key_in[97]
*258 key_in[98]
*259 key_in[99]
*260 key_in[9]
*261 mode
*262 reset
*263 _0000_
*264 _0001_
*265 _0002_
*266 _0003_
*267 _0004_
*268 _0005_
*269 _0006_
*270 _0007_
*271 _0008_
*272 _0009_
*273 _0010_
*274 _0011_
*275 _0012_
*276 _0013_
*277 _0014_
*278 _0015_
*279 _0016_
*280 _0017_
*281 _0018_
*282 _0019_
*283 _0020_
*284 _0021_
*285 _0022_
*286 _0023_
*287 _0024_
*288 _0025_
*289 _0026_
*290 _0027_
*291 _0028_
*292 _0029_
*293 _0030_
*294 _0031_
*295 _0032_
*296 _0033_
*297 _0034_
*298 _0035_
*299 _0036_
*300 _0037_
*301 _0038_
*302 _0039_
*303 _0040_
*304 _0041_
*305 _0042_
*306 _0043_
*307 _0044_
*308 _0045_
*309 _0046_
*310 _0047_
*311 _0048_
*312 _0049_
*313 _0050_
*314 _0051_
*315 _0052_
*316 _0053_
*317 _0054_
*318 _0055_
*319 _0056_
*320 _0057_
*321 _0058_
*322 _0059_
*323 _0060_
*324 _0061_
*325 _0062_
*326 _0063_
*327 _0064_
*328 _0065_
*329 _0066_
*330 _0067_
*331 _0068_
*332 _0069_
*333 _0070_
*334 _0071_
*335 _0072_
*336 _0073_
*337 _0074_
*338 _0075_
*339 _0076_
*340 _0077_
*341 _0078_
*342 _0079_
*343 _0080_
*344 _0081_
*345 _0082_
*346 _0083_
*347 _0084_
*348 _0085_
*349 _0086_
*350 _0087_
*351 _0088_
*352 _0089_
*353 _0090_
*354 _0091_
*355 _0092_
*356 _0093_
*357 _0094_
*358 _0095_
*359 _0096_
*360 _0097_
*361 _0098_
*362 _0099_
*363 _0100_
*364 _0101_
*365 _0102_
*366 _0103_
*367 _0104_
*368 _0105_
*369 _0106_
*370 _0107_
*371 _0108_
*372 _0109_
*373 _0110_
*374 _0111_
*375 _0112_
*376 _0113_
*377 _0114_
*378 _0115_
*379 _0116_
*380 _0117_
*381 _0118_
*382 _0119_
*383 _0120_
*384 _0121_
*385 _0122_
*386 _0123_
*387 _0124_
*388 _0125_
*389 _0126_
*390 _0127_
*391 _0128_
*392 _0129_
*393 _0130_
*394 _0131_
*395 _0132_
*396 _0133_
*397 _0134_
*398 _0135_
*399 _0136_
*400 _0137_
*401 _0138_
*402 _0139_
*403 _0140_
*404 _0141_
*405 _0142_
*406 _0143_
*407 _0144_
*408 _0145_
*409 _0146_
*410 _0147_
*411 _0148_
*412 _0149_
*413 _0150_
*414 _0151_
*415 _0152_
*416 _0153_
*417 _0154_
*418 _0155_
*419 _0156_
*420 _0157_
*421 _0158_
*422 _0159_
*423 _0160_
*424 _0161_
*425 _0162_
*426 _0163_
*427 _0164_
*428 _0165_
*429 _0166_
*430 _0167_
*431 _0168_
*432 _0169_
*433 _0170_
*434 _0171_
*435 _0172_
*436 _0173_
*437 _0174_
*438 _0175_
*439 _0176_
*440 _0177_
*441 _0178_
*442 _0179_
*443 _0180_
*444 _0181_
*445 _0182_
*446 _0183_
*447 _0184_
*448 _0185_
*449 _0186_
*450 _0187_
*451 _0188_
*452 _0189_
*453 _0190_
*454 _0191_
*455 _0192_
*456 _0193_
*457 _0194_
*458 _0195_
*459 _0196_
*460 _0197_
*461 _0198_
*462 _0199_
*463 _0200_
*464 _0201_
*465 _0202_
*466 _0203_
*467 _0204_
*468 _0205_
*469 _0206_
*470 _0207_
*471 _0208_
*472 _0209_
*473 _0210_
*474 _0211_
*475 _0212_
*476 _0213_
*477 _0214_
*478 _0215_
*479 _0216_
*480 _0217_
*481 _0218_
*482 _0219_
*483 _0220_
*484 _0221_
*485 _0222_
*486 _0223_
*487 _0224_
*488 _0225_
*489 _0226_
*490 _0227_
*491 _0228_
*492 _0229_
*493 _0230_
*494 _0231_
*495 _0232_
*496 _0233_
*497 _0234_
*498 _0235_
*499 _0236_
*500 _0237_
*501 _0238_
*502 _0239_
*503 _0240_
*504 _0241_
*505 _0242_
*506 _0243_
*507 _0244_
*508 _0245_
*509 _0246_
*510 _0247_
*511 _0248_
*512 _0249_
*513 _0250_
*514 _0251_
*515 _0252_
*516 _0253_
*517 _0254_
*518 _0255_
*519 _0256_
*520 _0257_
*521 _0258_
*522 _0259_
*523 _0260_
*524 _0261_
*525 _0262_
*526 _0263_
*527 _0264_
*528 _0265_
*529 _0266_
*530 _0267_
*531 _0268_
*532 _0269_
*533 _0270_
*534 _0271_
*535 _0272_
*536 _0273_
*537 _0274_
*538 _0275_
*539 _0276_
*540 _0277_
*541 _0278_
*542 _0279_
*543 _0280_
*544 _0281_
*545 _0282_
*546 _0283_
*547 _0284_
*548 _0285_
*549 _0286_
*550 _0287_
*551 _0288_
*552 _0289_
*553 _0290_
*554 _0291_
*555 _0292_
*556 _0293_
*557 _0294_
*558 _0295_
*559 _0296_
*560 _0297_
*561 _0298_
*562 _0299_
*563 _0300_
*564 _0301_
*565 _0302_
*566 _0303_
*567 _0304_
*568 _0305_
*569 _0306_
*570 _0307_
*571 _0308_
*572 _0309_
*573 _0310_
*574 _0311_
*575 _0312_
*576 _0313_
*577 _0314_
*578 _0315_
*579 _0316_
*580 _0317_
*581 _0318_
*582 _0319_
*583 _0320_
*584 _0321_
*585 _0322_
*586 _0323_
*587 _0324_
*588 _0325_
*589 _0326_
*590 _0327_
*591 _0328_
*592 _0329_
*593 _0330_
*594 _0331_
*595 _0332_
*596 _0333_
*597 _0334_
*598 _0335_
*599 _0336_
*600 _0337_
*601 _0338_
*602 _0339_
*603 _0340_
*604 _0341_
*605 _0342_
*606 _0343_
*607 _0344_
*608 _0345_
*609 _0346_
*610 _0347_
*611 _0348_
*612 _0349_
*613 _0350_
*614 _0351_
*615 _0352_
*616 _0353_
*617 _0354_
*618 _0355_
*619 _0356_
*620 _0357_
*621 _0358_
*622 _0359_
*623 _0360_
*624 _0361_
*625 _0362_
*626 _0363_
*627 _0364_
*628 _0365_
*629 _0366_
*630 _0367_
*631 _0368_
*632 _0369_
*633 _0370_
*634 _0371_
*635 _0372_
*636 _0373_
*637 _0374_
*638 _0375_
*639 _0376_
*640 _0377_
*641 _0378_
*642 _0379_
*643 _0380_
*644 _0381_
*645 _0382_
*646 _0383_
*647 _0384_
*648 _0385_
*649 _0386_
*650 _0387_
*651 _0388_
*652 _0389_
*653 _0390_
*654 _0391_
*655 _0392_
*656 _0393_
*657 _0394_
*658 _0395_
*659 _0396_
*660 _0397_
*661 _0398_
*662 _0399_
*663 _0400_
*664 _0401_
*665 _0402_
*666 _0403_
*667 _0404_
*668 _0405_
*669 _0406_
*670 _0407_
*671 _0408_
*672 _0409_
*673 _0410_
*674 _0411_
*675 _0412_
*676 _0413_
*677 _0414_
*678 _0415_
*679 _0416_
*680 _0417_
*681 _0418_
*682 _0419_
*683 _0420_
*684 _0421_
*685 _0422_
*686 _0423_
*687 _0424_
*688 _0425_
*689 _0426_
*690 _0427_
*691 _0428_
*692 _0429_
*693 _0430_
*694 _0431_
*695 _0432_
*696 _0433_
*697 _0434_
*698 _0435_
*699 _0436_
*700 _0437_
*701 _0438_
*702 _0439_
*703 _0440_
*704 _0441_
*705 _0442_
*706 _0443_
*707 _0444_
*708 _0445_
*709 _0446_
*710 _0447_
*711 _0448_
*712 _0449_
*713 _0450_
*714 _0451_
*715 _0452_
*716 _0453_
*717 _0454_
*718 _0455_
*719 _0456_
*720 _0457_
*721 _0458_
*722 _0459_
*723 _0460_
*724 _0461_
*725 _0462_
*726 _0463_
*727 _0464_
*728 _0465_
*729 _0466_
*730 _0467_
*731 _0468_
*732 _0469_
*733 _0470_
*734 _0471_
*735 _0472_
*736 _0473_
*737 _0474_
*738 _0475_
*739 _0476_
*740 _0477_
*741 _0478_
*742 _0479_
*743 _0480_
*744 _0481_
*745 _0482_
*746 _0483_
*747 _0484_
*748 _0485_
*749 _0486_
*750 _0487_
*751 _0488_
*752 _0489_
*753 _0490_
*754 _0491_
*755 _0492_
*756 _0493_
*757 _0494_
*758 _0495_
*759 _0496_
*760 _0497_
*761 _0498_
*762 _0499_
*763 _0500_
*764 _0501_
*765 _0502_
*766 _0503_
*767 _0504_
*768 _0505_
*769 _0506_
*770 _0507_
*771 _0508_
*772 _0509_
*773 _0510_
*774 _0511_
*775 _0512_
*776 _0513_
*777 _0514_
*778 _0515_
*779 _0516_
*780 _0517_
*781 _0518_
*782 _0519_
*783 _0520_
*784 _0521_
*785 _0522_
*786 _0523_
*787 _0524_
*788 _0525_
*789 _0526_
*790 _0527_
*791 _0528_
*792 _0529_
*793 _0530_
*794 _0531_
*795 _0532_
*796 _0533_
*797 _0534_
*798 _0535_
*799 _0536_
*800 _0537_
*801 _0538_
*802 _0539_
*803 _0540_
*804 _0541_
*805 _0542_
*806 _0543_
*807 _0544_
*808 _0545_
*809 _0546_
*810 _0547_
*811 _0548_
*812 _0549_
*813 _0550_
*814 _0551_
*815 _0552_
*816 _0553_
*817 _0554_
*818 _0555_
*819 _0556_
*820 _0557_
*821 _0558_
*822 _0559_
*823 _0560_
*824 _0561_
*825 _0562_
*826 _0563_
*827 _0564_
*828 _0565_
*829 _0566_
*830 _0567_
*831 _0568_
*832 _0569_
*833 _0570_
*834 _0571_
*835 _0572_
*836 _0573_
*837 _0574_
*838 _0575_
*839 _0576_
*840 _0577_
*841 _0578_
*842 _0579_
*843 _0580_
*844 _0581_
*845 _0582_
*846 _0583_
*847 _0584_
*848 _0585_
*849 _0586_
*850 _0587_
*851 _0588_
*852 _0589_
*853 _0590_
*854 _0591_
*855 _0592_
*856 _0593_
*857 _0594_
*858 _0595_
*859 _0596_
*860 _0597_
*861 _0598_
*862 _0599_
*863 _0600_
*864 _0601_
*865 _0602_
*866 _0603_
*867 _0604_
*868 _0605_
*869 _0606_
*870 _0607_
*871 _0608_
*872 _0609_
*873 _0610_
*874 _0611_
*875 _0612_
*876 _0613_
*877 _0614_
*878 _0615_
*879 _0616_
*880 _0617_
*881 _0618_
*882 _0619_
*883 _0620_
*884 _0621_
*885 _0622_
*886 _0623_
*887 _0624_
*888 _0625_
*889 _0626_
*890 _0627_
*891 _0628_
*892 _0629_
*893 _0630_
*894 _0631_
*895 _0632_
*896 _0633_
*897 _0634_
*898 _0635_
*899 _0636_
*900 _0637_
*901 _0638_
*902 _0639_
*903 _0640_
*904 _0641_
*905 _0642_
*906 _0643_
*907 _0644_
*908 _0645_
*909 _0646_
*910 _0647_
*911 _0648_
*912 _0649_
*913 _0650_
*914 _0651_
*915 _0652_
*916 _0653_
*917 _0654_
*918 _0655_
*919 _0656_
*920 _0657_
*921 _0658_
*922 _0659_
*923 _0660_
*924 _0661_
*925 _0662_
*926 _0663_
*927 _0664_
*928 _0665_
*929 _0666_
*930 _0667_
*931 _0668_
*932 _0669_
*933 _0670_
*934 _0671_
*935 _0672_
*936 _0673_
*937 _0674_
*938 _0675_
*939 _0676_
*940 _0677_
*941 _0678_
*942 _0679_
*943 _0680_
*944 _0681_
*945 _0682_
*946 _0683_
*947 _0684_
*948 _0685_
*949 _0686_
*950 _0687_
*951 _0688_
*952 _0689_
*953 _0690_
*954 _0691_
*955 _0692_
*956 _0693_
*957 _0694_
*958 _0695_
*959 _0696_
*960 _0697_
*961 _0698_
*962 _0699_
*963 _0700_
*964 _0701_
*965 _0702_
*966 _0703_
*967 _0704_
*968 _0705_
*969 _0706_
*970 _0707_
*971 _0708_
*972 _0709_
*973 _0710_
*974 _0711_
*975 _0712_
*976 _0713_
*977 _0714_
*978 _0715_
*979 _0716_
*980 _0717_
*981 _0718_
*982 _0719_
*983 _0720_
*984 _0721_
*985 _0722_
*986 _0723_
*987 _0724_
*988 _0725_
*989 _0726_
*990 _0727_
*991 _0728_
*992 _0729_
*993 _0730_
*994 _0731_
*995 _0732_
*996 _0733_
*997 _0734_
*998 _0735_
*999 _0736_
*1000 _0737_
*1001 _0738_
*1002 _0739_
*1003 _0740_
*1004 _0741_
*1005 _0742_
*1006 _0743_
*1007 _0744_
*1008 _0745_
*1009 _0746_
*1010 _0747_
*1011 _0748_
*1012 _0749_
*1013 _0750_
*1014 _0751_
*1015 _0752_
*1016 _0753_
*1017 _0754_
*1018 _0755_
*1019 _0756_
*1020 _0757_
*1021 _0758_
*1022 _0759_
*1023 _0760_
*1024 _0761_
*1025 _0762_
*1026 _0763_
*1027 _0764_
*1028 _0765_
*1029 _0766_
*1030 _0767_
*1031 _0768_
*1032 _0769_
*1033 _0770_
*1034 _0771_
*1035 _0772_
*1036 _0773_
*1037 _0774_
*1038 _0775_
*1039 _0776_
*1040 _0777_
*1041 _0778_
*1042 _0779_
*1043 _0780_
*1044 _0781_
*1045 _0782_
*1046 _0783_
*1047 _0784_
*1048 _0785_
*1049 _0786_
*1050 _0787_
*1051 _0788_
*1052 _0789_
*1053 _0790_
*1054 _0791_
*1055 _0792_
*1056 _0793_
*1057 _0794_
*1058 _0795_
*1059 _0796_
*1060 _0797_
*1061 _0798_
*1062 _0799_
*1063 _0800_
*1064 _0801_
*1065 _0802_
*1066 _0803_
*1067 _0804_
*1068 _0805_
*1069 _0806_
*1070 _0807_
*1071 _0808_
*1072 _0809_
*1073 _0810_
*1074 _0811_
*1075 _0812_
*1076 _0813_
*1077 _0814_
*1078 _0815_
*1079 _0816_
*1080 _0817_
*1081 _0818_
*1082 _0819_
*1083 _0820_
*1084 _0821_
*1085 _0822_
*1086 _0823_
*1087 _0824_
*1088 _0825_
*1089 _0826_
*1090 _0827_
*1091 _0828_
*1092 _0829_
*1093 _0830_
*1094 _0831_
*1095 _0832_
*1096 _0833_
*1097 _0834_
*1098 _0835_
*1099 _0836_
*1100 _0837_
*1101 _0838_
*1102 _0839_
*1103 _0840_
*1104 _0841_
*1105 _0842_
*1106 _0843_
*1107 _0844_
*1108 _0845_
*1109 _0846_
*1110 _0847_
*1111 _0848_
*1112 _0849_
*1113 _0850_
*1114 _0851_
*1115 _0852_
*1116 _0853_
*1117 _0854_
*1118 _0855_
*1119 _0856_
*1120 _0857_
*1121 _0858_
*1122 _0859_
*1123 _0860_
*1124 _0861_
*1125 _0862_
*1126 _0863_
*1127 _0864_
*1128 _0865_
*1129 _0866_
*1130 _0867_
*1131 _0868_
*1132 _0869_
*1133 _0870_
*1134 _0871_
*1135 _0872_
*1136 _0873_
*1137 _0874_
*1138 _0875_
*1139 _0876_
*1140 _0877_
*1141 _0878_
*1142 _0879_
*1143 _0880_
*1144 _0881_
*1145 _0882_
*1146 _0883_
*1147 _0884_
*1148 _0885_
*1149 _0886_
*1150 _0887_
*1151 _0888_
*1152 _0889_
*1153 _0890_
*1154 _0891_
*1155 _0892_
*1156 _0893_
*1157 _0894_
*1158 _0895_
*1159 _0896_
*1160 _0897_
*1161 _0898_
*1162 _0899_
*1163 _0900_
*1164 _0901_
*1165 _0902_
*1166 _0903_
*1167 _0904_
*1168 _0905_
*1169 _0906_
*1170 _0907_
*1171 _0908_
*1172 _0909_
*1173 _0910_
*1174 _0911_
*1175 _0912_
*1176 _0913_
*1177 _0914_
*1178 _0915_
*1179 _0916_
*1180 _0917_
*1181 _0918_
*1182 _0919_
*1183 _0920_
*1184 _0921_
*1185 _0922_
*1186 _0923_
*1187 _0924_
*1188 _0925_
*1189 _0926_
*1190 _0927_
*1191 _0928_
*1192 _0929_
*1193 _0930_
*1194 _0931_
*1195 _0932_
*1196 _0933_
*1197 _0934_
*1198 _0935_
*1199 _0936_
*1200 _0937_
*1201 _0938_
*1202 _0939_
*1203 _0940_
*1204 _0941_
*1205 _0942_
*1206 _0943_
*1207 _0944_
*1208 _0945_
*1209 _0946_
*1210 _0947_
*1211 _0948_
*1212 _0949_
*1213 _0950_
*1214 _0951_
*1215 _0952_
*1216 _0953_
*1217 _0954_
*1218 _0955_
*1219 _0956_
*1220 _0957_
*1221 _0958_
*1222 _0959_
*1223 _0960_
*1224 _0961_
*1225 _0962_
*1226 _0963_
*1227 _0964_
*1228 _0965_
*1229 _0966_
*1230 _0967_
*1231 _0968_
*1232 _0969_
*1233 _0970_
*1234 _0971_
*1235 _0972_
*1236 _0973_
*1237 _0974_
*1238 _0975_
*1239 _0976_
*1240 _0977_
*1241 _0978_
*1242 _0979_
*1243 _0980_
*1244 _0981_
*1245 _0982_
*1246 _0983_
*1247 _0984_
*1248 _0985_
*1249 _0986_
*1250 _0987_
*1251 _0988_
*1252 _0989_
*1253 _0990_
*1254 _0991_
*1255 _0992_
*1256 _0993_
*1257 _0994_
*1258 _0995_
*1259 _0996_
*1260 _0997_
*1261 _0998_
*1262 _0999_
*1263 _1000_
*1264 _1001_
*1265 _1002_
*1266 _1003_
*1267 _1004_
*1268 _1005_
*1269 _1006_
*1270 _1007_
*1271 _1008_
*1272 _1009_
*1273 _1010_
*1274 _1011_
*1275 _1012_
*1276 _1013_
*1277 _1014_
*1278 _1015_
*1279 _1016_
*1280 _1017_
*1281 _1018_
*1282 _1019_
*1283 _1020_
*1284 _1021_
*1285 _1022_
*1286 _1023_
*1287 _1024_
*1288 _1025_
*1289 _1026_
*1290 _1027_
*1291 _1028_
*1292 _1029_
*1293 _1030_
*1294 _1031_
*1295 _1032_
*1296 _1033_
*1297 _1034_
*1298 _1035_
*1299 _1036_
*1300 _1037_
*1301 _1038_
*1302 _1039_
*1303 _1040_
*1304 _1041_
*1305 _1042_
*1306 _1043_
*1307 _1044_
*1308 _1045_
*1309 _1046_
*1310 _1047_
*1311 _1048_
*1312 _1049_
*1313 _1050_
*1314 _1051_
*1315 _1052_
*1316 _1053_
*1317 _1054_
*1318 _1055_
*1319 _1056_
*1320 _1057_
*1321 _1058_
*1322 _1059_
*1323 _1060_
*1324 _1061_
*1325 _1062_
*1326 _1063_
*1327 _1064_
*1328 _1065_
*1329 _1066_
*1330 _1067_
*1331 _1068_
*1332 _1069_
*1333 _1070_
*1334 _1071_
*1335 _1072_
*1336 _1073_
*1337 _1074_
*1338 _1075_
*1339 _1076_
*1340 _1077_
*1341 _1078_
*1342 _1079_
*1343 _1080_
*1344 _1081_
*1345 _1082_
*1346 _1083_
*1347 _1084_
*1348 _1085_
*1349 _1086_
*1350 _1087_
*1351 _1088_
*1352 _1089_
*1353 _1090_
*1354 _1091_
*1355 _1092_
*1356 _1093_
*1357 _1094_
*1358 _1095_
*1359 _1096_
*1360 _1097_
*1361 _1098_
*1362 _1099_
*1363 _1100_
*1364 _1101_
*1365 _1102_
*1366 _1103_
*1367 _1104_
*1368 _1105_
*1369 _1106_
*1370 _1107_
*1371 _1108_
*1372 _1109_
*1373 _1110_
*1374 _1111_
*1375 _1112_
*1376 _1113_
*1377 _1114_
*1378 _1115_
*1379 _1116_
*1380 _1117_
*1381 _1118_
*1382 _1119_
*1383 _1120_
*1384 _1121_
*1385 _1122_
*1386 _1123_
*1387 _1124_
*1388 _1125_
*1389 _1126_
*1390 _1127_
*1391 _1128_
*1392 _1129_
*1393 _1130_
*1394 _1131_
*1395 _1132_
*1396 _1133_
*1397 _1134_
*1398 _1135_
*1399 _1136_
*1400 _1137_
*1401 _1138_
*1402 _1139_
*1403 _1140_
*1404 _1141_
*1405 _1142_
*1406 _1143_
*1407 _1144_
*1408 _1145_
*1409 _1146_
*1410 _1147_
*1411 _1148_
*1412 _1149_
*1413 _1150_
*1414 _1151_
*1415 _1152_
*1416 _1153_
*1417 _1154_
*1418 _1155_
*1419 _1156_
*1420 _1157_
*1421 _1158_
*1422 _1159_
*1423 _1160_
*1424 _1161_
*1425 _1162_
*1426 _1163_
*1427 _1164_
*1428 _1165_
*1429 _1166_
*1430 _1167_
*1431 _1168_
*1432 _1169_
*1433 _1170_
*1434 _1171_
*1435 _1172_
*1436 _1173_
*1437 _1174_
*1438 _1175_
*1439 _1176_
*1440 _1177_
*1441 _1178_
*1442 _1179_
*1443 _1180_
*1444 _1181_
*1445 _1182_
*1446 _1183_
*1447 _1184_
*1448 _1185_
*1449 _1186_
*1450 _1187_
*1451 _1188_
*1452 _1189_
*1453 _1190_
*1454 _1191_
*1455 _1192_
*1456 _1193_
*1457 _1194_
*1458 _1195_
*1459 _1196_
*1460 _1197_
*1461 _1198_
*1462 _1199_
*1463 _1200_
*1464 _1201_
*1465 _1202_
*1466 _1203_
*1467 _1204_
*1468 _1205_
*1469 _1206_
*1470 _1207_
*1471 _1208_
*1472 _1209_
*1473 _1210_
*1474 _1211_
*1475 _1212_
*1476 _1213_
*1477 _1214_
*1478 _1215_
*1479 _1216_
*1480 _1217_
*1481 _1218_
*1482 _1219_
*1483 _1220_
*1484 _1221_
*1485 _1222_
*1486 _1223_
*1487 _1224_
*1488 _1225_
*1489 _1226_
*1490 _1227_
*1491 _1228_
*1492 _1229_
*1493 _1230_
*1494 _1231_
*1495 _1232_
*1496 _1233_
*1497 _1234_
*1498 _1235_
*1499 _1236_
*1500 _1237_
*1501 _1238_
*1502 _1239_
*1503 _1240_
*1504 _1241_
*1505 _1242_
*1506 _1243_
*1507 _1244_
*1508 _1245_
*1509 _1246_
*1510 _1247_
*1511 _1248_
*1512 _1249_
*1513 _1250_
*1514 _1251_
*1515 _1252_
*1516 _1253_
*1517 _1254_
*1518 _1255_
*1519 _1256_
*1520 _1257_
*1521 _1258_
*1522 _1259_
*1523 _1260_
*1524 _1261_
*1525 _1262_
*1526 _1263_
*1527 _1264_
*1528 _1265_
*1529 _1266_
*1530 _1267_
*1531 _1268_
*1532 _1269_
*1533 _1270_
*1534 _1271_
*1535 _1272_
*1536 _1273_
*1537 _1274_
*1538 _1275_
*1539 _1276_
*1540 _1277_
*1541 _1278_
*1542 _1279_
*1543 _1280_
*1544 _1281_
*1545 _1282_
*1546 _1283_
*1547 _1284_
*1548 _1285_
*1549 _1286_
*1550 _1287_
*1551 _1288_
*1552 _1289_
*1553 _1290_
*1554 _1291_
*1555 _1292_
*1556 _1293_
*1557 _1294_
*1558 _1295_
*1559 _1296_
*1560 _1297_
*1561 _1298_
*1562 _1299_
*1563 _1300_
*1564 _1301_
*1565 _1302_
*1566 _1303_
*1567 _1304_
*1568 _1305_
*1569 _1306_
*1570 _1307_
*1571 _1308_
*1572 _1309_
*1573 _1310_
*1574 _1311_
*1575 _1312_
*1576 _1313_
*1577 _1314_
*1578 _1315_
*1579 _1316_
*1580 _1317_
*1581 _1318_
*1582 _1319_
*1583 _1320_
*1584 _1321_
*1585 _1322_
*1586 _1323_
*1587 _1324_
*1588 _1325_
*1589 _1326_
*1590 _1327_
*1591 _1328_
*1592 _1329_
*1593 _1330_
*1594 _1331_
*1595 _1332_
*1596 _1333_
*1597 _1334_
*1598 _1335_
*1599 _1336_
*1600 _1337_
*1601 _1338_
*1602 _1339_
*1603 _1340_
*1604 _1341_
*1605 _1342_
*1606 _1343_
*1607 _1344_
*1608 _1345_
*1609 _1346_
*1610 _1347_
*1611 _1348_
*1612 _1349_
*1613 _1350_
*1614 _1351_
*1615 _1352_
*1616 _1353_
*1617 _1354_
*1618 _1355_
*1619 _1356_
*1620 _1357_
*1621 _1358_
*1622 _1359_
*1623 _1360_
*1624 _1361_
*1625 _1362_
*1626 _1363_
*1627 _1364_
*1628 _1365_
*1629 _1366_
*1630 _1367_
*1631 _1368_
*1632 _1369_
*1633 _1370_
*1634 _1371_
*1635 _1372_
*1636 _1373_
*1637 _1374_
*1638 _1375_
*1639 _1376_
*1640 _1377_
*1641 _1378_
*1642 _1379_
*1643 _1380_
*1644 _1381_
*1645 _1382_
*1646 _1383_
*1647 _1384_
*1648 _1385_
*1649 _1386_
*1650 _1387_
*1651 _1388_
*1652 _1389_
*1653 _1390_
*1654 _1391_
*1655 _1392_
*1656 _1393_
*1657 _1394_
*1658 _1395_
*1659 _1396_
*1660 _1397_
*1661 _1398_
*1662 _1399_
*1663 _1400_
*1664 _1401_
*1665 _1402_
*1666 _1403_
*1667 _1404_
*1668 _1405_
*1669 _1406_
*1670 _1407_
*1671 _1408_
*1672 _1409_
*1673 _1410_
*1674 _1411_
*1675 _1412_
*1676 _1413_
*1677 _1414_
*1678 _1415_
*1679 _1416_
*1680 _1417_
*1681 _1418_
*1682 _1419_
*1683 _1420_
*1684 _1421_
*1685 _1422_
*1686 _1423_
*1687 _1424_
*1688 _1425_
*1689 _1426_
*1690 _1427_
*1691 _1428_
*1692 _1429_
*1693 _1430_
*1694 _1431_
*1695 _1432_
*1696 _1433_
*1697 _1434_
*1698 _1435_
*1699 _1436_
*1700 _1437_
*1701 _1438_
*1702 _1439_
*1703 _1440_
*1704 _1441_
*1705 _1442_
*1706 _1443_
*1707 _1444_
*1708 _1445_
*1709 _1446_
*1710 _1447_
*1711 _1448_
*1712 _1449_
*1713 _1450_
*1714 _1451_
*1715 _1452_
*1716 _1453_
*1717 _1454_
*1718 _1455_
*1719 _1456_
*1720 _1457_
*1721 _1458_
*1722 _1459_
*1723 _1460_
*1724 _1461_
*1725 _1462_
*1726 _1463_
*1727 _1464_
*1728 _1465_
*1729 _1466_
*1730 _1467_
*1731 _1468_
*1732 _1469_
*1733 _1470_
*1734 _1471_
*1735 _1472_
*1736 _1473_
*1737 _1474_
*1738 _1475_
*1739 _1476_
*1740 _1477_
*1741 _1478_
*1742 _1479_
*1743 _1480_
*1744 _1481_
*1745 _1482_
*1746 _1483_
*1747 _1484_
*1748 _1485_
*1749 _1486_
*1750 _1487_
*1751 _1488_
*1752 _1489_
*1753 _1490_
*1754 _1491_
*1755 _1492_
*1756 _1493_
*1757 _1494_
*1758 _1495_
*1759 _1496_
*1760 _1497_
*1761 _1498_
*1762 _1499_
*1763 _1500_
*1764 _1501_
*1765 _1502_
*1766 _1503_
*1767 _1504_
*1768 _1505_
*1769 _1506_
*1770 _1507_
*1771 _1508_
*1772 _1509_
*1773 _1510_
*1774 _1511_
*1775 _1512_
*1776 _1513_
*1777 _1514_
*1778 _1515_
*1779 _1516_
*1780 _1517_
*1781 _1518_
*1782 _1519_
*1783 _1520_
*1784 _1521_
*1785 _1522_
*1786 _1523_
*1787 _1524_
*1788 _1525_
*1789 _1526_
*1790 _1527_
*1791 _1528_
*1792 _1529_
*1793 _1530_
*1794 _1531_
*1795 _1532_
*1796 _1533_
*1797 _1534_
*1798 _1535_
*1799 _1536_
*1800 _1537_
*1801 _1538_
*1802 _1539_
*1803 _1540_
*1804 _1541_
*1805 _1542_
*1806 _1543_
*1807 _1544_
*1808 _1545_
*1809 _1546_
*1810 _1547_
*1811 _1548_
*1812 _1549_
*1813 _1550_
*1814 _1551_
*1815 _1552_
*1816 _1553_
*1817 _1554_
*1818 _1555_
*1819 _1556_
*1820 _1557_
*1821 _1558_
*1822 _1559_
*1823 _1560_
*1824 _1561_
*1825 _1562_
*1826 _1563_
*1827 _1564_
*1828 _1565_
*1829 _1566_
*1830 _1567_
*1831 _1568_
*1832 _1569_
*1833 _1570_
*1834 _1571_
*1835 _1572_
*1836 _1573_
*1837 _1574_
*1838 _1575_
*1839 _1576_
*1840 _1577_
*1841 _1578_
*1842 _1579_
*1843 _1580_
*1844 _1581_
*1845 _1582_
*1846 _1583_
*1847 _1584_
*1848 _1585_
*1849 _1586_
*1850 _1587_
*1851 _1588_
*1852 _1589_
*1853 _1590_
*1854 _1591_
*1855 _1592_
*1856 _1593_
*1857 _1594_
*1858 _1595_
*1859 _1596_
*1860 _1597_
*1861 _1598_
*1862 _1599_
*1863 _1600_
*1864 _1601_
*1865 _1602_
*1866 _1603_
*1867 _1604_
*1868 _1605_
*1869 _1606_
*1870 _1607_
*1871 _1608_
*1872 _1609_
*1873 _1610_
*1874 _1611_
*1875 _1612_
*1876 _1613_
*1877 _1614_
*1878 _1615_
*1879 _1616_
*1880 _1617_
*1881 _1618_
*1882 _1619_
*1883 _1620_
*1884 _1621_
*1885 _1622_
*1886 _1623_
*1887 _1624_
*1888 _1625_
*1889 _1626_
*1890 _1627_
*1891 _1628_
*1892 _1629_
*1893 _1630_
*1894 _1631_
*1895 _1632_
*1896 _1633_
*1897 _1634_
*1898 _1635_
*1899 _1636_
*1900 _1637_
*1901 _1638_
*1902 _1639_
*1903 _1640_
*1904 _1641_
*1905 _1642_
*1906 _1643_
*1907 _1644_
*1908 _1645_
*1909 _1646_
*1910 _1647_
*1911 _1648_
*1912 _1649_
*1913 _1650_
*1914 _1651_
*1915 _1652_
*1916 _1653_
*1917 _1654_
*1918 _1655_
*1919 _1656_
*1920 _1657_
*1921 _1658_
*1922 _1659_
*1923 _1660_
*1924 _1661_
*1925 _1662_
*1926 _1663_
*1927 _1664_
*1928 _1665_
*1929 _1666_
*1930 _1667_
*1931 _1668_
*1932 _1669_
*1933 _1670_
*1934 _1671_
*1935 _1672_
*1936 _1673_
*1937 _1674_
*1938 _1675_
*1939 _1676_
*1940 _1677_
*1941 _1678_
*1942 _1679_
*1943 _1680_
*1944 _1681_
*1945 _1682_
*1946 _1683_
*1947 _1684_
*1948 _1685_
*1949 _1686_
*1950 _1687_
*1951 _1688_
*1952 _1689_
*1953 _1690_
*1954 _1691_
*1955 _1692_
*1956 _1693_
*1957 _1694_
*1958 _1695_
*1959 _1696_
*1960 _1697_
*1961 _1698_
*1962 _1699_
*1963 _1700_
*1964 _1701_
*1965 _1702_
*1966 _1703_
*1967 _1704_
*1968 _1705_
*1969 _1706_
*1970 _1707_
*1971 _1708_
*1972 _1709_
*1973 _1710_
*1974 _1711_
*1975 _1712_
*1976 _1713_
*1977 _1714_
*1978 _1715_
*1979 _1716_
*1980 _1717_
*1981 _1718_
*1982 _1719_
*1983 _1720_
*1984 _1721_
*1985 _1722_
*1986 _1723_
*1987 _1724_
*1988 _1725_
*1989 _1726_
*1990 _1727_
*1991 _1728_
*1992 _1729_
*1993 _1730_
*1994 _1731_
*1995 _1732_
*1996 _1733_
*1997 _1734_
*1998 _1735_
*1999 _1736_
*2000 _1737_
*2001 _1738_
*2002 _1739_
*2003 _1740_
*2004 _1741_
*2005 _1742_
*2006 _1743_
*2007 _1744_
*2008 _1745_
*2009 _1746_
*2010 _1747_
*2011 _1748_
*2012 _1749_
*2013 _1750_
*2014 _1751_
*2015 _1752_
*2016 _1753_
*2017 _1754_
*2018 _1755_
*2019 _1756_
*2020 _1757_
*2021 _1758_
*2022 _1759_
*2023 _1760_
*2024 _1761_
*2025 _1762_
*2026 _1763_
*2027 _1764_
*2028 _1765_
*2029 _1766_
*2030 _1767_
*2031 _1768_
*2032 _1769_
*2033 _1770_
*2034 _1771_
*2035 _1772_
*2036 _1773_
*2037 _1774_
*2038 _1775_
*2039 _1776_
*2040 _1777_
*2041 _1778_
*2042 _1779_
*2043 _1780_
*2044 _1781_
*2045 _1782_
*2046 _1783_
*2047 _1784_
*2048 _1785_
*2049 _1786_
*2050 _1787_
*2051 _1788_
*2052 _1789_
*2053 _1790_
*2054 _1791_
*2055 _1792_
*2056 _1793_
*2057 _1794_
*2058 _1795_
*2059 _1796_
*2060 _1797_
*2061 _1798_
*2062 _1799_
*2063 _1800_
*2064 _1801_
*2065 _1802_
*2066 _1803_
*2067 _1804_
*2068 _1805_
*2069 _1806_
*2070 _1807_
*2071 _1808_
*2072 _1809_
*2073 _1810_
*2074 _1811_
*2075 _1812_
*2076 _1813_
*2077 _1814_
*2078 _1815_
*2079 _1816_
*2080 _1817_
*2081 _1818_
*2082 _1819_
*2083 _1820_
*2084 _1821_
*2085 _1822_
*2086 _1823_
*2087 _1824_
*2088 _1825_
*2089 _1826_
*2090 _1827_
*2091 _1828_
*2092 _1829_
*2093 _1830_
*2094 _1831_
*2095 _1832_
*2096 _1833_
*2097 _1834_
*2098 _1835_
*2099 _1836_
*2100 _1837_
*2101 _1838_
*2102 _1839_
*2103 _1840_
*2104 _1841_
*2105 _1842_
*2106 _1843_
*2107 _1844_
*2108 _1845_
*2109 _1846_
*2110 _1847_
*2111 _1848_
*2112 _1849_
*2113 _1850_
*2114 _1851_
*2115 _1852_
*2116 _1853_
*2117 _1854_
*2118 _1855_
*2119 _1856_
*2120 _1857_
*2121 _1858_
*2122 _1859_
*2123 _1860_
*2124 _1861_
*2125 _1862_
*2126 _1863_
*2127 _1864_
*2128 _1865_
*2129 _1866_
*2130 _1867_
*2131 _1868_
*2132 _1869_
*2133 _1870_
*2134 _1871_
*2135 _1872_
*2136 _1873_
*2137 _1874_
*2138 _1875_
*2139 _1876_
*2140 _1877_
*2141 _1878_
*2142 _1879_
*2143 _1880_
*2144 _1881_
*2145 _1882_
*2146 _1883_
*2147 _1884_
*2148 _1885_
*2149 _1886_
*2150 _1887_
*2151 _1888_
*2152 _1889_
*2153 _1890_
*2154 _1891_
*2155 _1892_
*2156 _1893_
*2157 _1894_
*2158 _1895_
*2159 _1896_
*2160 _1897_
*2161 _1898_
*2162 _1899_
*2163 _1900_
*2164 _1901_
*2165 _1902_
*2166 _1903_
*2167 _1904_
*2168 _1905_
*2169 _1906_
*2170 _1907_
*2171 _1908_
*2172 _1909_
*2173 _1910_
*2174 _1911_
*2175 _1912_
*2176 _1913_
*2177 _1914_
*2178 _1915_
*2179 _1916_
*2180 _1917_
*2181 _1918_
*2182 _1919_
*2183 _1920_
*2184 _1921_
*2185 _1922_
*2186 _1923_
*2187 _1924_
*2188 _1925_
*2189 _1926_
*2190 _1927_
*2191 _1928_
*2192 _1929_
*2193 _1930_
*2194 _1931_
*2195 _1932_
*2196 _1933_
*2197 _1934_
*2198 _1935_
*2199 _1936_
*2200 _1937_
*2201 _1938_
*2202 _1939_
*2203 _1940_
*2204 _1941_
*2205 _1942_
*2206 _1943_
*2207 _1944_
*2208 _1945_
*2209 _1946_
*2210 _1947_
*2211 _1948_
*2212 _1949_
*2213 _1950_
*2214 _1951_
*2215 _1952_
*2216 _1953_
*2217 _1954_
*2218 _1955_
*2219 _1956_
*2220 _1957_
*2221 _1958_
*2222 _1959_
*2223 _1960_
*2224 _1961_
*2225 _1962_
*2226 _1963_
*2227 _1964_
*2228 _1965_
*2229 _1966_
*2230 _1967_
*2231 _1968_
*2232 _1969_
*2233 _1970_
*2234 _1971_
*2235 _1972_
*2236 _1973_
*2237 _1974_
*2238 _1975_
*2239 _1976_
*2240 _1977_
*2241 _1978_
*2242 _1979_
*2243 _1980_
*2244 _1981_
*2245 _1982_
*2246 _1983_
*2247 _1984_
*2248 _1985_
*2249 _1986_
*2250 _1987_
*2251 _1988_
*2252 _1989_
*2253 _1990_
*2254 _1991_
*2255 _1992_
*2256 _1993_
*2257 _1994_
*2258 _1995_
*2259 _1996_
*2260 _1997_
*2261 _1998_
*2262 _1999_
*2263 _2000_
*2264 _2001_
*2265 _2002_
*2266 _2003_
*2267 _2004_
*2268 _2005_
*2269 _2006_
*2270 _2007_